/*--------------------------------*- C++ -*----------------------------------*\
  =========                 |
  \\      /  F ield         | OpenFOAM: The Open Source CFD Toolbox
   \\    /   O peration     | Website:  https://openfoam.org
    \\  /    A nd           | Version:  8
     \\/     M anipulation  |
\*---------------------------------------------------------------------------*/
FoamFile
{
    version     2.0;
    format      ascii;
    class       dictionary;
    location    "system";
    object      controlDict;
}
// * * * * * * * * * * * * * * * * * * * * * * * * * * * * * * * * * * * * * //

application     interFoam;

startFrom       latestTime;

startTime       0;

stopAt          endTime;

endTime         12;

deltaT          0.0001;

writeControl    adjustableRunTime;

writeInterval   0.5;

purgeWrite      0;

writeFormat     binary;

writePrecision  12;

writeCompression off;

timeFormat      general;

timePrecision   12;

runTimeModifiable yes;

adjustTimeStep  on;

maxCo           0.5;
maxAlphaCo      0.5;

maxDeltaT       0.01;

libs            ("libp_rghJumpAMI.so");

functions
{
    surfaceSampling
    {
        type            surfaces;
        libs            (sampling);
        writeControl    runTime;
        writeInterval   0.025;

        interpolationScheme cellPointWallModified;

        surfaceFormat ensight;

        formatOptions
        {
            vtp
            {
                format binary;
            }
        }

        // Fields to be sampled
        fields
        (
            U
            k
            omega
            nut
            alpha.water
            p_rgh
        );

        surfaces
        {
            freeSurface
            {
                type            isoSurface;
                isoField        alpha.water;
                isoValue        0.5;
                interpolate     true;
            }

            yNormalMinus2
            {
                type        cuttingPlane;
                planeType   pointAndNormal;
                pointAndNormalDict {
                    point       (0 -2 0);
                    normal      (0 1 0);
                }
                interpolate true;
            }    
            yNormal
            {
                type        cuttingPlane;
                planeType   pointAndNormal;
                pointAndNormalDict {
                    point       (0 0 0);
                    normal      (0 1 0);
                }
                interpolate true;
            }
            yNormalPlu2
            {
                type        cuttingPlane;
                planeType   pointAndNormal;
                pointAndNormalDict {
                    point       (0 2 0);
                    normal      (0 1 0);
                }
                interpolate true;
            }


            xNormal25
            {
                type        cuttingPlane;
                planeType   pointAndNormal;
                pointAndNormalDict {
                    point       (2.5 0 0);
                    normal      (1 0 0);
                }
                interpolate true;
            }
            xNormal50
            {
                type        cuttingPlane;
                planeType   pointAndNormal;
                pointAndNormalDict {
                    point       (5.0 0 0);
                    normal      (1 0 0);
                }
                interpolate true;
            }
            yNormal75
            {
                type        cuttingPlane;
                planeType   pointAndNormal;
                pointAndNormalDict {
                    point       (7.5 0 0);
                    normal      (1 0 0);
                }
                interpolate true;
            }

            constantDepth
            {
                type        cuttingPlane;
                planeType   pointAndNormal;
                pointAndNormalDict {
                    point       (0 0 1);
                    normal      (0.01 0 1);
                }
                interpolate true;
            }

        }
    }
}

// ************************************************************************* //
